<?xml version="1.0" encoding="UTF-8"?>



<routes xmlns:xsi="http://www.w3.org/2001/XMLSchema-instance" xsi:noNamespaceSchemaLocation="http://sumo.dlr.de/xsd/routes_file.xsd">
    <vType id="bus" vClass="bus" color="red"/>
    <vType id="tram" vClass="tram" color="blue"/>
    <route edges="-56041151#1 -56041151#0 -86860823 86860821#0 86860821#1 86860821#2 189004526#0 189004526#1 86865206 33557890#0 33557890#1" color="yellow" id="route_0"/>
    <route edges="-56041151#0 -86860823 86860821#0 86860821#1 86860821#2 189004526#0 189004526#1 86865206 -26925581#2 -26925581#1 -26925581#0 -863004827 -26925580" color="yellow" id="route_1"/>
    <route edges="24798229#6 428260942 428260946#0 428260946#1 31014214 86865206 33557890#0 33557890#1" color="yellow" id="route_10"/>
    <route edges="24798229#6 428260942 428260946#0 428260946#1 31014214 86865206 -26925581#2 -26925581#1 -26925581#0 -863004827 -26925580" color="yellow" id="route_11"/>
    <route edges="24798229#6 428260942 428260946#0 428260946#1 31014214 56043685#0 56043685#1" color="yellow" id="route_12"/>
    <route edges="24798229#6 428260942 428260946#0 428260946#1 86865230#0 86865230#1 86865230#2 86865230#3 86865230#4 86860823 56041151#0 56041151#1" color="yellow" id="route_13"/>
    <route edges="428260943 428260945#0 428260945#1 118227930 33557890#0 33557890#1" color="yellow" id="route_14">
        <stop busStop="busStop_33557890#1_0_1" duration="60.00"/>
    </route>
    <route edges="-56041151#1 -56041151#0 -86860823 86860821#0 86860821#1 86860821#2 189004526#0 189004526#1 86865206 33557890#0 33557890#1" color="yellow" id="route_16">
        <stop busStop="busStop_33557890#1_0_1" duration="60.00"/>
    </route>
    <route edges="-56041151#1 -56041151#0 -86860823 86860821#0 86860821#1 86860821#2 189004526#0 189004526#1 56043685#0 56043685#1" color="yellow" id="route_17">
        <stop busStop="busStop_56043685#1_0_0" duration="60.00"/>
    </route>
    <route edges="-56041151#1 -56041151#0 -86860823 86860821#0 86860821#1 86860821#2 189004526#0 189004526#1 56043685#0 56043685#1" color="yellow" id="route_15">
        <stop busStop="busStop_56043685#1_0_0" duration="60.00"/>
    </route>
    <route edges="24798229#6 428260942 428260946#0 428260946#1 86865230#0 86865230#1 86865230#2 86865230#3 86865230#4 86860823 56041151#0 56041151#1" color="yellow" id="route_19">
        <stop busStop="busStop_86860823_0_4" duration="60.00"/>
    </route>
    <route edges="24798229#6 428260942 428260946#0 428260946#1 86865230#0 86865230#1 86865230#2 86865230#3 86865230#4 86860823 56041151#0 56041151#1" color="yellow" id="route_18">
        <stop busStop="busStop_86860823_0_4" duration="60.00"/>
    </route>
    <route edges="-56041151#1 -56041151#0 -86860823 86860821#0 86860821#1 86860821#2 189004526#0 189004526#1 56043685#0 56043685#1" color="yellow" id="route_2"/>
    <route edges="251393900#2 251393900#3 251393900#4 251393900#5" color="yellow" id="route_20">
        <stop busStop="busStop_251393900#2_0_3" duration="60.00"/>
    </route>
    <route edges="251393901#0 251393901#1 251393901#2 251393901#3" color="yellow" id="route_21">
        <stop busStop="busStop_251393901#3_0_2" duration="60.00"/>
    </route>
    <route edges="428260943 428260945#0 428260945#1 118227930 4041687 31014214 56043685#0 56043685#1" color="yellow" id="route_3"/>
    <route edges="428260943 428260945#0 428260945#1 118227930 4041687 86865230#0 86865230#1 86865230#2 86865230#3 86865230#4 86860823 56041151#0 56041151#1" color="yellow" id="route_4"/>
    <route edges="428260943 428260945#0 428260945#1 118227930 33557890#0 33557890#1" color="yellow" id="route_5"/>
    <route edges="428260943 428260945#0 428260945#1 118227930 -26925581#2 -26925581#1 -26925581#0 -863004827 -26925580" color="yellow" id="route_6"/>
    <route edges="26925580 863004827 26925581#0 26925581#1 26925581#2 4041687 31014214 56043685#0 56043685#1" color="yellow" id="route_7"/>
    <route edges="26925580 863004827 26925581#0 26925581#1 26925581#2 4041687 86865230#0 86865230#1 86865230#2 86865230#3 86865230#4 86860823 56041151#0" color="yellow" id="route_8"/>
    <route edges="26925580 863004827 26925581#0 26925581#1 26925581#2 33557890#0 33557890#1" color="yellow" id="route_9"/>
    <vehicle id="vehicle_0" depart="1.00" route="route_12"/>
<vehicle id="vehicle_1" depart="1.00" route="route_12"/>
<vehicle id="vehicle_2" depart="24.00" route="route_12"/>
<vehicle id="vehicle_3" depart="24.00" route="route_12"/>
<vehicle id="vehicle_4" depart="25.00" route="route_5"/>
<vehicle id="vehicle_5" depart="25.00" route="route_5"/>
<vehicle id="vehicle_6" depart="25.00" route="route_5"/>
<vehicle id="vehicle_7" depart="26.00" route="route_12"/>
<vehicle id="vehicle_8" depart="26.00" route="route_12"/>
<vehicle id="vehicle_9" depart="27.00" route="route_5"/>
<vehicle id="vehicle_10" depart="27.00" route="route_5"/>
<vehicle id="vehicle_11" depart="29.00" route="route_5"/>
<vehicle id="vehicle_12" depart="31.00" route="route_5"/>
<vehicle id="vehicle_13" depart="31.00" route="route_5"/>
<vehicle id="vehicle_14" depart="45.00" route="route_12"/>
<vehicle id="vehicle_15" depart="56.00" route="route_12"/>
<vehicle id="vehicle_16" type="bus" depart="78.00" route="route_17"/>
<vehicle id="vehicle_17" depart="80.00" route="route_7"/>
<vehicle id="vehicle_18" type="bus" depart="91.00" route="route_18"/>
<vehicle id="vehicle_19" depart="96.00" route="route_12"/>
<vehicle id="vehicle_20" depart="96.00" route="route_12"/>
<vehicle id="vehicle_21" depart="96.00" route="route_12"/>
<vehicle id="vehicle_22" depart="96.00" route="route_12"/>
<vehicle id="vehicle_23" depart="98.00" route="route_12"/>
<vehicle id="vehicle_24" depart="98.00" route="route_12"/>
<vehicle id="vehicle_25" depart="98.00" route="route_12"/>
<vehicle id="vehicle_26" depart="104.00" route="route_5"/>
<vehicle id="vehicle_27" depart="104.00" route="route_5"/>
<vehicle id="vehicle_28" depart="104.00" route="route_5"/>
<vehicle id="vehicle_29" depart="107.00" route="route_5"/>
<vehicle id="vehicle_30" depart="107.00" route="route_5"/>
<vehicle id="vehicle_31" depart="109.00" route="route_5"/>
<vehicle id="vehicle_32" depart="109.00" route="route_5"/>
<vehicle id="vehicle_33" depart="109.00" route="route_5"/>
<vehicle id="vehicle_34" depart="115.00" route="route_5"/>
<vehicle id="vehicle_35" depart="115.00" route="route_5"/>
<vehicle id="vehicle_36" depart="118.00" route="route_12"/>
<vehicle id="vehicle_37" depart="118.00" route="route_12"/>
<vehicle id="vehicle_38" depart="126.00" route="route_5"/>
<vehicle id="vehicle_39" type="tram" depart="142.00" route="route_21"/>
<vehicle id="vehicle_40" type="tram" depart="149.00" route="route_20"/>
<vehicle id="vehicle_41" depart="149.00" route="route_12"/>
<vehicle id="vehicle_42" depart="190.00" route="route_5"/>
<vehicle id="vehicle_43" depart="190.00" route="route_5"/>
<vehicle id="vehicle_44" depart="190.00" route="route_5"/>
<vehicle id="vehicle_45" depart="196.00" route="route_5"/>
<vehicle id="vehicle_46" depart="196.00" route="route_3"/>
<vehicle id="vehicle_47" depart="197.00" route="route_5"/>
<vehicle id="vehicle_48" depart="198.00" route="route_5"/>
<vehicle id="vehicle_49" depart="198.00" route="route_5"/>
<vehicle id="vehicle_50" depart="198.00" route="route_7"/>
<vehicle id="vehicle_51" depart="199.00" route="route_5"/>
<vehicle id="vehicle_52" depart="210.00" route="route_12"/>
<vehicle id="vehicle_53" depart="210.00" route="route_12"/>
<vehicle id="vehicle_54" depart="210.00" route="route_12"/>
<vehicle id="vehicle_55" depart="210.00" route="route_12"/>
<vehicle id="vehicle_56" depart="210.00" route="route_12"/>
<vehicle id="vehicle_57" type="bus" depart="212.00" route="route_15"/>
<vehicle id="vehicle_58" depart="213.00" route="route_12"/>
<vehicle id="vehicle_59" depart="215.00" route="route_12"/>
<vehicle id="vehicle_60" depart="215.00" route="route_12"/>
<vehicle id="vehicle_61" depart="231.00" route="route_7"/>
<vehicle id="vehicle_62" depart="240.00" route="route_9"/>
<vehicle id="vehicle_63" depart="251.00" route="route_5"/>
<vehicle id="vehicle_64" depart="252.00" route="route_12"/>
<vehicle id="vehicle_65" depart="252.00" route="route_12"/>
<vehicle id="vehicle_66" depart="252.00" route="route_12"/>
<vehicle id="vehicle_67" depart="252.00" route="route_12"/>
<vehicle id="vehicle_68" depart="252.00" route="route_5"/>
<vehicle id="vehicle_69" depart="252.00" route="route_5"/>
<vehicle id="vehicle_70" depart="252.00" route="route_5"/>
<vehicle id="vehicle_71" depart="258.00" route="route_12"/>
<vehicle id="vehicle_72" depart="258.00" route="route_12"/>
<vehicle id="vehicle_73" depart="258.00" route="route_12"/>
<vehicle id="vehicle_74" depart="259.00" route="route_5"/>
<vehicle id="vehicle_75" depart="261.00" route="route_5"/>
<vehicle id="vehicle_76" depart="262.00" route="route_12"/>
<vehicle id="vehicle_77" depart="262.00" route="route_12"/>
<vehicle id="vehicle_78" depart="285.00" route="route_7"/>
<vehicle id="vehicle_79" depart="286.00" route="route_2"/>
<vehicle id="vehicle_80" depart="303.00" route="route_5"/>
<vehicle id="vehicle_81" depart="306.00" route="route_12"/>
<vehicle id="vehicle_82" depart="319.00" route="route_12"/>
<vehicle id="vehicle_83" depart="319.00" route="route_12"/>
<vehicle id="vehicle_84" depart="319.00" route="route_12"/>
<vehicle id="vehicle_85" depart="319.00" route="route_5"/>
<vehicle id="vehicle_86" depart="320.00" route="route_5"/>
<vehicle id="vehicle_87" depart="324.00" route="route_5"/>
<vehicle id="vehicle_88" depart="324.00" route="route_5"/>
<vehicle id="vehicle_89" depart="324.00" route="route_5"/>
<vehicle id="vehicle_90" depart="325.00" route="route_5"/>
<vehicle id="vehicle_91" depart="331.00" route="route_12"/>
<vehicle id="vehicle_92" depart="331.00" route="route_12"/>
<vehicle id="vehicle_93" depart="333.00" route="route_12"/>
<vehicle id="vehicle_94" depart="333.00" route="route_5"/>
<vehicle id="vehicle_95" depart="351.00" route="route_10"/>
<vehicle id="vehicle_96" depart="357.00" route="route_5"/>
<vehicle id="vehicle_97" depart="360.00" route="route_5"/>
<vehicle id="vehicle_98" depart="373.00" route="route_12"/>
<vehicle id="vehicle_99" depart="379.00" route="route_12"/>
<vehicle id="vehicle_100" depart="386.00" route="route_5"/>
<vehicle id="vehicle_101" depart="386.00" route="route_5"/>
<vehicle id="vehicle_102" depart="390.00" route="route_5"/>
<vehicle id="vehicle_103" depart="391.00" route="route_5"/>
<vehicle id="vehicle_104" depart="393.00" route="route_12"/>
<vehicle id="vehicle_105" depart="393.00" route="route_12"/>
<vehicle id="vehicle_106" depart="393.00" route="route_12"/>
<vehicle id="vehicle_107" depart="393.00" route="route_12"/>
<vehicle id="vehicle_108" depart="396.00" route="route_5"/>
<vehicle id="vehicle_109" depart="396.00" route="route_5"/>
<vehicle id="vehicle_110" depart="396.00" route="route_5"/>
<vehicle id="vehicle_111" depart="396.00" route="route_5"/>
<vehicle id="vehicle_112" depart="401.00" route="route_12"/>
<vehicle id="vehicle_113" depart="405.00" route="route_5"/>
<vehicle id="vehicle_114" depart="405.00" route="route_5"/>
<vehicle id="vehicle_115" depart="405.00" route="route_5"/>
<vehicle id="vehicle_116" depart="405.00" route="route_5"/>
<vehicle id="vehicle_117" depart="410.00" route="route_12"/>
<vehicle id="vehicle_118" depart="410.00" route="route_5"/>
<vehicle id="vehicle_119" depart="410.00" route="route_5"/>
<vehicle id="vehicle_120" depart="412.00" route="route_12"/>
<vehicle id="vehicle_121" depart="413.00" route="route_5"/>
<vehicle id="vehicle_122" depart="421.00" route="route_12"/>
<vehicle id="vehicle_123" depart="456.00" route="route_5"/>
<vehicle id="vehicle_124" depart="456.00" route="route_5"/>
<vehicle id="vehicle_125" depart="456.00" route="route_5"/>
<vehicle id="vehicle_126" depart="457.00" route="route_6"/>
<vehicle id="vehicle_127" depart="471.00" route="route_12"/>
<vehicle id="vehicle_128" depart="471.00" route="route_12"/>
<vehicle id="vehicle_129" depart="471.00" route="route_12"/>
<vehicle id="vehicle_130" depart="471.00" route="route_12"/>
<vehicle id="vehicle_131" depart="474.00" route="route_12"/>
<vehicle id="vehicle_132" depart="474.00" route="route_12"/>
<vehicle id="vehicle_133" depart="479.00" route="route_12"/>
<vehicle id="vehicle_134" depart="479.00" route="route_12"/>
<vehicle id="vehicle_135" depart="479.00" route="route_12"/>
<vehicle id="vehicle_136" depart="486.00" route="route_5"/>
<vehicle id="vehicle_137" type="tram" depart="487.00" route="route_20"/>
<vehicle id="vehicle_138" depart="490.00" route="route_5"/>
<vehicle id="vehicle_139" depart="490.00" route="route_5"/>
<vehicle id="vehicle_140" type="bus" depart="504.00" route="route_17"/>
<vehicle id="vehicle_141" depart="524.00" route="route_5"/>
<vehicle id="vehicle_142" depart="524.00" route="route_5"/>
<vehicle id="vehicle_143" depart="525.00" route="route_5"/>
<vehicle id="vehicle_144" depart="525.00" route="route_5"/>
<vehicle id="vehicle_145" depart="525.00" route="route_5"/>
<vehicle id="vehicle_146" depart="532.00" route="route_12"/>
<vehicle id="vehicle_147" depart="544.00" route="route_5"/>
<vehicle id="vehicle_148" depart="544.00" route="route_5"/>
<vehicle id="vehicle_149" depart="544.00" route="route_12"/>
<vehicle id="vehicle_150" depart="547.00" route="route_5"/>
<vehicle id="vehicle_151" depart="552.00" route="route_12"/>
<vehicle id="vehicle_152" depart="552.00" route="route_12"/>
<vehicle id="vehicle_153" depart="554.00" route="route_12"/>
<vehicle id="vehicle_154" depart="557.00" route="route_12"/>
<vehicle id="vehicle_155" depart="557.00" route="route_12"/>
<vehicle id="vehicle_156" depart="561.00" route="route_12"/>
<vehicle id="vehicle_157" depart="561.00" route="route_12"/>
<vehicle id="vehicle_158" depart="594.00" route="route_5"/>
<vehicle id="vehicle_159" depart="594.00" route="route_5"/>
<vehicle id="vehicle_160" depart="597.00" route="route_12"/>
<vehicle id="vehicle_161" depart="597.00" route="route_12"/>
<vehicle id="vehicle_162" depart="597.00" route="route_12"/>
<vehicle id="vehicle_163" depart="599.00" route="route_5"/>
<vehicle id="vehicle_164" depart="599.00" route="route_5"/>
<vehicle id="vehicle_165" depart="599.00" route="route_12"/>
<vehicle id="vehicle_166" type="tram" depart="601.00" route="route_20"/>
<vehicle id="vehicle_167" depart="602.00" route="route_5"/>
<vehicle id="vehicle_168" depart="607.00" route="route_2"/>
<vehicle id="vehicle_169" type="tram" depart="607.00" route="route_21"/>
<vehicle id="vehicle_170" depart="611.00" route="route_12"/>
<vehicle id="vehicle_171" depart="613.00" route="route_5"/>
<vehicle id="vehicle_172" depart="613.00" route="route_5"/>
<vehicle id="vehicle_173" depart="613.00" route="route_5"/>
<vehicle id="vehicle_174" depart="613.00" route="route_5"/>
<vehicle id="vehicle_175" depart="623.00" route="route_11"/>
<vehicle id="vehicle_176" depart="631.00" route="route_5"/>
<vehicle id="vehicle_177" depart="632.00" route="route_5"/>
<vehicle id="vehicle_178" depart="633.00" route="route_5"/>
<vehicle id="vehicle_179" depart="633.00" route="route_5"/>
<vehicle id="vehicle_180" depart="644.00" route="route_5"/>
<vehicle id="vehicle_181" type="bus" depart="649.00" route="route_18"/>
<vehicle id="vehicle_182" depart="657.00" route="route_5"/>
<vehicle id="vehicle_183" depart="659.00" route="route_5"/>
<vehicle id="vehicle_184" depart="662.00" route="route_5"/>
<vehicle id="vehicle_185" depart="662.00" route="route_12"/>
<vehicle id="vehicle_186" depart="664.00" route="route_12"/>
<vehicle id="vehicle_187" depart="664.00" route="route_12"/>
<vehicle id="vehicle_188" depart="669.00" route="route_12"/>
<vehicle id="vehicle_189" depart="683.00" route="route_12"/>
<vehicle id="vehicle_190" depart="683.00" route="route_12"/>
<vehicle id="vehicle_191" depart="683.00" route="route_12"/>
<vehicle id="vehicle_192" depart="691.00" route="route_9"/>
<vehicle id="vehicle_193" depart="701.00" route="route_7"/>
<vehicle id="vehicle_194" depart="702.00" route="route_0"/>
<vehicle id="vehicle_195" depart="707.00" route="route_0"/>
<vehicle id="vehicle_196" depart="715.00" route="route_5"/>
<vehicle id="vehicle_197" depart="715.00" route="route_5"/>
<vehicle id="vehicle_198" depart="718.00" route="route_12"/>
<vehicle id="vehicle_199" depart="718.00" route="route_5"/>
<vehicle id="vehicle_200" depart="718.00" route="route_5"/>
<vehicle id="vehicle_201" depart="721.00" route="route_5"/>
<vehicle id="vehicle_202" depart="725.00" route="route_5"/>
<vehicle id="vehicle_203" depart="725.00" route="route_5"/>
<vehicle id="vehicle_204" depart="725.00" route="route_5"/>
<vehicle id="vehicle_205" depart="727.00" route="route_5"/>
<vehicle id="vehicle_206" depart="727.00" route="route_5"/>
<vehicle id="vehicle_207" depart="727.00" route="route_5"/>
<vehicle id="vehicle_208" depart="729.00" route="route_12"/>
<vehicle id="vehicle_209" type="bus" depart="730.00" route="route_14"/>
<vehicle id="vehicle_210" depart="741.00" route="route_12"/>
<vehicle id="vehicle_211" depart="741.00" route="route_12"/>
<vehicle id="vehicle_212" depart="745.00" route="route_12"/>
<vehicle id="vehicle_213" depart="745.00" route="route_12"/>
<vehicle id="vehicle_214" depart="745.00" route="route_12"/>
<vehicle id="vehicle_215" depart="747.00" route="route_12"/>
<vehicle id="vehicle_216" depart="747.00" route="route_12"/>
<vehicle id="vehicle_217" depart="756.00" route="route_12"/>
<vehicle id="vehicle_218" depart="756.00" route="route_12"/>
<vehicle id="vehicle_219" depart="756.00" route="route_12"/>
<vehicle id="vehicle_220" depart="756.00" route="route_12"/>
<vehicle id="vehicle_221" depart="756.00" route="route_12"/>
<vehicle id="vehicle_222" depart="756.00" route="route_12"/>
<vehicle id="vehicle_223" depart="756.00" route="route_5"/>
<vehicle id="vehicle_224" depart="762.00" route="route_12"/>
<vehicle id="vehicle_225" depart="762.00" route="route_5"/>
<vehicle id="vehicle_226" depart="765.00" route="route_5"/>
<vehicle id="vehicle_227" depart="807.00" route="route_12"/>
<vehicle id="vehicle_228" depart="810.00" route="route_5"/>
<vehicle id="vehicle_229" depart="810.00" route="route_5"/>
<vehicle id="vehicle_230" depart="810.00" route="route_12"/>
<vehicle id="vehicle_231" depart="814.00" route="route_6"/>
<vehicle id="vehicle_232" depart="817.00" route="route_12"/>
<vehicle id="vehicle_233" depart="817.00" route="route_12"/>
<vehicle id="vehicle_234" depart="817.00" route="route_6"/>
<vehicle id="vehicle_235" depart="820.00" route="route_12"/>
<vehicle id="vehicle_236" depart="821.00" route="route_5"/>
<vehicle id="vehicle_237" depart="821.00" route="route_5"/>
<vehicle id="vehicle_238" depart="822.00" route="route_12"/>
<vehicle id="vehicle_239" depart="825.00" route="route_5"/>
<vehicle id="vehicle_240" depart="825.00" route="route_5"/>
<vehicle id="vehicle_241" depart="827.00" route="route_5"/>
<vehicle id="vehicle_242" depart="827.00" route="route_5"/>
<vehicle id="vehicle_243" depart="827.00" route="route_12"/>
<vehicle id="vehicle_244" depart="832.00" route="route_12"/>
<vehicle id="vehicle_245" depart="832.00" route="route_12"/>
<vehicle id="vehicle_246" depart="832.00" route="route_12"/>
<vehicle id="vehicle_247" depart="854.00" route="route_7"/>
<vehicle id="vehicle_248" depart="866.00" route="route_5"/>
<vehicle id="vehicle_249" depart="866.00" route="route_5"/>
<vehicle id="vehicle_250" depart="868.00" route="route_5"/>
<vehicle id="vehicle_251" depart="868.00" route="route_5"/>
<vehicle id="vehicle_252" depart="868.00" route="route_5"/>
<vehicle id="vehicle_253" depart="870.00" route="route_12"/>
<vehicle id="vehicle_254" depart="870.00" route="route_12"/>
<vehicle id="vehicle_255" depart="870.00" route="route_12"/>
<vehicle id="vehicle_256" depart="871.00" route="route_5"/>
<vehicle id="vehicle_257" depart="873.00" route="route_5"/>
<vehicle id="vehicle_258" depart="873.00" route="route_12"/>
<vehicle id="vehicle_259" depart="873.00" route="route_12"/>
<vehicle id="vehicle_260" depart="873.00" route="route_12"/>
<vehicle id="vehicle_261" depart="875.00" route="route_5"/>
<vehicle id="vehicle_262" depart="878.00" route="route_5"/>
<vehicle id="vehicle_263" depart="879.00" route="route_5"/>
<vehicle id="vehicle_264" depart="881.00" route="route_12"/>
<vehicle id="vehicle_265" depart="883.00" route="route_5"/>
<vehicle id="vehicle_266" depart="887.00" route="route_12"/>
<vehicle id="vehicle_267" depart="892.00" route="route_5"/>
<vehicle id="vehicle_268" depart="894.00" route="route_5"/>
<vehicle id="vehicle_269" depart="923.00" route="route_4"/>
<vehicle id="vehicle_270" depart="927.00" route="route_5"/>
<vehicle id="vehicle_271" depart="927.00" route="route_5"/>
<vehicle id="vehicle_272" depart="933.00" route="route_5"/>
<vehicle id="vehicle_273" depart="936.00" route="route_5"/>
<vehicle id="vehicle_274" depart="939.00" route="route_5"/>
<vehicle id="vehicle_275" depart="940.00" route="route_5"/>
<vehicle id="vehicle_276" depart="940.00" route="route_5"/>
<vehicle id="vehicle_277" depart="943.00" route="route_5"/>
<vehicle id="vehicle_278" depart="944.00" route="route_5"/>
<vehicle id="vehicle_279" depart="945.00" route="route_12"/>
<vehicle id="vehicle_280" depart="945.00" route="route_12"/>
<vehicle id="vehicle_281" depart="945.00" route="route_12"/>
<vehicle id="vehicle_282" depart="945.00" route="route_12"/>
<vehicle id="vehicle_283" depart="947.00" route="route_12"/>
<vehicle id="vehicle_284" depart="947.00" route="route_12"/>
<vehicle id="vehicle_285" depart="947.00" route="route_12"/>
<vehicle id="vehicle_286" depart="947.00" route="route_12"/>
<vehicle id="vehicle_287" depart="947.00" route="route_12"/>
<vehicle id="vehicle_288" depart="949.00" route="route_5"/>
<vehicle id="vehicle_289" type="tram" depart="953.00" route="route_21"/>
<vehicle id="vehicle_290" depart="958.00" route="route_12"/>
<vehicle id="vehicle_291" depart="958.00" route="route_12"/>
<vehicle id="vehicle_292" depart="958.00" route="route_12"/>
<vehicle id="vehicle_293" depart="959.00" route="route_5"/>
<vehicle id="vehicle_294" depart="961.00" route="route_5"/>
<vehicle id="vehicle_295" type="bus" depart="973.00" route="route_17"/>
<vehicle id="vehicle_296" depart="994.00" route="route_5"/>
<vehicle id="vehicle_297" depart="994.00" route="route_5"/>
<vehicle id="vehicle_298" depart="997.00" route="route_5"/>
<vehicle id="vehicle_299" depart="997.00" route="route_5"/>
<vehicle id="vehicle_300" depart="1002.00" route="route_5"/>
<vehicle id="vehicle_301" depart="1004.00" route="route_12"/>
<vehicle id="vehicle_302" depart="1004.00" route="route_12"/>
<vehicle id="vehicle_303" depart="1004.00" route="route_12"/>
<vehicle id="vehicle_304" depart="1004.00" route="route_12"/>
<vehicle id="vehicle_305" depart="1004.00" route="route_12"/>
<vehicle id="vehicle_306" depart="1004.00" route="route_12"/>
<vehicle id="vehicle_307" depart="1006.00" route="route_5"/>
<vehicle id="vehicle_308" depart="1010.00" route="route_13"/>
<vehicle id="vehicle_309" depart="1015.00" route="route_5"/>
<vehicle id="vehicle_310" depart="1018.00" route="route_12"/>
<vehicle id="vehicle_311" depart="1018.00" route="route_12"/>
<vehicle id="vehicle_312" depart="1025.00" route="route_5"/>
<vehicle id="vehicle_313" depart="1050.00" route="route_7"/>
<vehicle id="vehicle_314" depart="1050.00" route="route_7"/>
<vehicle id="vehicle_315" depart="1064.00" route="route_5"/>
<vehicle id="vehicle_316" depart="1064.00" route="route_5"/>
<vehicle id="vehicle_317" depart="1066.00" route="route_12"/>
<vehicle id="vehicle_318" depart="1066.00" route="route_5"/>
<vehicle id="vehicle_319" depart="1066.00" route="route_5"/>
<vehicle id="vehicle_320" depart="1066.00" route="route_5"/>
<vehicle id="vehicle_321" depart="1070.00" route="route_5"/>
<vehicle id="vehicle_322" depart="1070.00" route="route_5"/>
<vehicle id="vehicle_323" depart="1071.00" route="route_5"/>
<vehicle id="vehicle_324" depart="1071.00" route="route_12"/>
<vehicle id="vehicle_325" depart="1071.00" route="route_12"/>
<vehicle id="vehicle_326" depart="1071.00" route="route_12"/>
<vehicle id="vehicle_327" depart="1076.00" route="route_12"/>
<vehicle id="vehicle_328" depart="1076.00" route="route_12"/>
<vehicle id="vehicle_329" depart="1076.00" route="route_12"/>
<vehicle id="vehicle_330" depart="1077.00" route="route_5"/>
<vehicle id="vehicle_331" depart="1078.00" route="route_12"/>
<vehicle id="vehicle_332" depart="1079.00" route="route_6"/>
<vehicle id="vehicle_333" depart="1087.00" route="route_12"/>
<vehicle id="vehicle_334" depart="1106.00" route="route_11"/>
<vehicle id="vehicle_335" type="bus" depart="1114.00" route="route_16"/>
<vehicle id="vehicle_336" depart="1115.00" route="route_9"/>
<vehicle id="vehicle_337" depart="1121.00" route="route_7"/>
<vehicle id="vehicle_338" depart="1139.00" route="route_5"/>
<vehicle id="vehicle_339" depart="1142.00" route="route_5"/>
<vehicle id="vehicle_340" depart="1146.00" route="route_12"/>
<vehicle id="vehicle_341" depart="1147.00" route="route_5"/>
<vehicle id="vehicle_342" depart="1151.00" route="route_12"/>
<vehicle id="vehicle_343" depart="1151.00" route="route_12"/>
<vehicle id="vehicle_344" depart="1151.00" route="route_12"/>
<vehicle id="vehicle_345" depart="1151.00" route="route_12"/>
<vehicle id="vehicle_346" depart="1155.00" route="route_12"/>
<vehicle id="vehicle_347" depart="1160.00" route="route_5"/>
<vehicle id="vehicle_348" depart="1161.00" route="route_5"/>
<vehicle id="vehicle_349" depart="1161.00" route="route_5"/>
<vehicle id="vehicle_350" depart="1163.00" route="route_5"/>
<vehicle id="vehicle_351" depart="1163.00" route="route_5"/>
<vehicle id="vehicle_352" type="tram" depart="1166.00" route="route_20"/>
<vehicle id="vehicle_353" depart="1167.00" route="route_5"/>
<vehicle id="vehicle_354" depart="1171.00" route="route_12"/>
<vehicle id="vehicle_355" depart="1171.00" route="route_12"/>
<vehicle id="vehicle_356" depart="1172.00" route="route_5"/>
<vehicle id="vehicle_357" type="bus" depart="1188.00" route="route_17"/>
<vehicle id="vehicle_358" type="bus" depart="1201.00" route="route_19"/>
<vehicle id="vehicle_359" depart="1203.00" route="route_5"/>
<vehicle id="vehicle_360" depart="1203.00" route="route_5"/>
<vehicle id="vehicle_361" depart="1207.00" route="route_5"/>
<vehicle id="vehicle_362" depart="1208.00" route="route_5"/>
<vehicle id="vehicle_363" depart="1209.00" route="route_5"/>
<vehicle id="vehicle_364" depart="1209.00" route="route_5"/>
<vehicle id="vehicle_365" depart="1210.00" route="route_5"/>
<vehicle id="vehicle_366" depart="1215.00" route="route_5"/>
<vehicle id="vehicle_367" depart="1218.00" route="route_5"/>
<vehicle id="vehicle_368" depart="1220.00" route="route_12"/>
<vehicle id="vehicle_369" depart="1221.00" route="route_5"/>
<vehicle id="vehicle_370" depart="1223.00" route="route_12"/>
<vehicle id="vehicle_371" depart="1245.00" route="route_0"/>
<vehicle id="vehicle_372" depart="1247.00" route="route_0"/>
<vehicle id="vehicle_373" type="bus" depart="1260.00" route="route_18"/>
<vehicle id="vehicle_374" type="tram" depart="1262.00" route="route_20"/>
<vehicle id="vehicle_375" depart="1265.00" route="route_5"/>
<vehicle id="vehicle_376" depart="1265.00" route="route_5"/>
<vehicle id="vehicle_377" depart="1266.00" route="route_5"/>
<vehicle id="vehicle_378" depart="1267.00" route="route_5"/>
<vehicle id="vehicle_379" depart="1268.00" route="route_5"/>
<vehicle id="vehicle_380" depart="1285.00" route="route_5"/>
<vehicle id="vehicle_381" depart="1286.00" route="route_12"/>
<vehicle id="vehicle_382" depart="1286.00" route="route_12"/>
<vehicle id="vehicle_383" depart="1290.00" route="route_12"/>
<vehicle id="vehicle_384" depart="1290.00" route="route_12"/>
<vehicle id="vehicle_385" depart="1293.00" route="route_12"/>
<vehicle id="vehicle_386" depart="1293.00" route="route_12"/>
<vehicle id="vehicle_387" depart="1293.00" route="route_12"/>
<vehicle id="vehicle_388" depart="1296.00" route="route_12"/>
<vehicle id="vehicle_389" depart="1296.00" route="route_12"/>
<vehicle id="vehicle_390" depart="1303.00" route="route_6"/>
<vehicle id="vehicle_391" depart="1344.00" route="route_5"/>
<vehicle id="vehicle_392" depart="1344.00" route="route_5"/>
<vehicle id="vehicle_393" depart="1347.00" route="route_4"/>
<vehicle id="vehicle_394" depart="1347.00" route="route_5"/>
<vehicle id="vehicle_395" depart="1350.00" route="route_5"/>
<vehicle id="vehicle_396" depart="1350.00" route="route_5"/>
<vehicle id="vehicle_397" depart="1359.00" route="route_5"/>
<vehicle id="vehicle_398" depart="1365.00" route="route_12"/>
<vehicle id="vehicle_399" depart="1365.00" route="route_12"/>
<vehicle id="vehicle_400" depart="1367.00" route="route_12"/>
<vehicle id="vehicle_401" depart="1367.00" route="route_12"/>
<vehicle id="vehicle_402" depart="1370.00" route="route_12"/>
<vehicle id="vehicle_403" depart="1404.00" route="route_5"/>
<vehicle id="vehicle_404" depart="1406.00" route="route_12"/>
<vehicle id="vehicle_405" depart="1406.00" route="route_12"/>
<vehicle id="vehicle_406" depart="1408.00" route="route_12"/>
<vehicle id="vehicle_407" depart="1408.00" route="route_12"/>
<vehicle id="vehicle_408" depart="1409.00" route="route_5"/>
<vehicle id="vehicle_409" depart="1409.00" route="route_5"/>
<vehicle id="vehicle_410" depart="1411.00" route="route_5"/>
<vehicle id="vehicle_411" depart="1411.00" route="route_5"/>
<vehicle id="vehicle_412" depart="1411.00" route="route_12"/>
<vehicle id="vehicle_413" depart="1411.00" route="route_12"/>
<vehicle id="vehicle_414" depart="1411.00" route="route_12"/>
<vehicle id="vehicle_415" depart="1414.00" route="route_5"/>
<vehicle id="vehicle_416" depart="1419.00" route="route_5"/>
<vehicle id="vehicle_417" depart="1421.00" route="route_5"/>
<vehicle id="vehicle_418" depart="1429.00" route="route_12"/>
<vehicle id="vehicle_419" depart="1432.00" route="route_12"/>
<vehicle id="vehicle_420" depart="1451.00" route="route_5"/>
<vehicle id="vehicle_421" depart="1454.00" route="route_5"/>